  
       XFOIL         Version 6.99
  
 Calculated polar for: NACA 23012                                      
  
 1 1 Reynolds number fixed          Mach number fixed         
  
 xtrf =   1.000 (top)        1.000 (bottom)  
 Mach =   0.000     Re =     3.000 e 6     Ncrit =   9.000
  
   alpha    CL        CD       CDp       CM     Top_Xtr  Bot_Xtr
  ------ -------- --------- --------- -------- -------- --------
  -7.000  -0.5897   0.00848   0.00385  -0.0259   0.9602   0.0153
  -6.000  -0.4846   0.00789   0.00306  -0.0240   0.8861   0.0172
  -5.000  -0.3869   0.00758   0.00244  -0.0205   0.7847   0.0199
  -4.000  -0.2852   0.00736   0.00194  -0.0179   0.6834   0.0236
  -2.000  -0.0757   0.00720   0.00131  -0.0141   0.4894   0.0407
  -1.000   0.0299   0.00723   0.00116  -0.0125   0.4002   0.0672
  -0.000   0.1225   0.00619   0.00094  -0.0087   0.3230   0.4297
   1.000   0.2206   0.00579   0.00098  -0.0057   0.2658   0.6528
   2.000   0.3203   0.00565   0.00113  -0.0028   0.2311   0.8064
   3.000   0.4221   0.00571   0.00136  -0.0002   0.2099   0.9018
   4.000   0.5313   0.00596   0.00164   0.0007   0.1937   0.9490
   5.000   0.6512   0.00636   0.00200  -0.0010   0.1792   0.9758
   6.000   0.7789   0.00687   0.00243  -0.0046   0.1644   0.9861
   7.000   0.9061   0.00743   0.00291  -0.0083   0.1499   0.9907
   8.000   1.0352   0.00811   0.00351  -0.0127   0.1312   0.9950
   9.000   1.1614   0.00892   0.00422  -0.0167   0.1110   0.9984
  10.000   1.2674   0.00997   0.00514  -0.0166   0.0863   1.0000
  11.000   1.3421   0.01125   0.00631  -0.0101   0.0630   1.0000
  13.000   1.4816   0.01471   0.00961   0.0032   0.0266   1.0000
  14.000   1.5394   0.01665   0.01159   0.0112   0.0189   1.0000
  15.000   1.5858   0.01896   0.01398   0.0198   0.0147   1.0000
