  
       XFOIL         Version 6.99
  
 Calculated polar for: NACA 23012                                      
  
 1 1 Reynolds number fixed          Mach number fixed         
  
 xtrf =   1.000 (top)        1.000 (bottom)  
 Mach =   0.000     Re =     0.000 e 6     Ncrit =   9.000
  
   alpha    CL        CD       CDp       CM     Top_Xtr  Bot_Xtr
  ------ -------- --------- --------- -------- -------- --------
  -7.000  -0.7062   0.00000  -0.00005  -0.0036   0.0000   0.0000
  -6.000  -0.5860   0.00000  -0.00005  -0.0046   0.0000   0.0000
  -5.000  -0.4656   0.00000  -0.00004  -0.0056   0.0000   0.0000
  -4.000  -0.3451   0.00000  -0.00004  -0.0067   0.0000   0.0000
  -3.000  -0.2245   0.00000  -0.00004  -0.0079   0.0000   0.0000
  -2.000  -0.1038   0.00000  -0.00003  -0.0091   0.0000   0.0000
  -1.000   0.0170   0.00000  -0.00003  -0.0103   0.0000   0.0000
  -0.000   0.1377   0.00000  -0.00003  -0.0116   0.0000   0.0000
   1.000   0.2584   0.00000  -0.00003  -0.0129   0.0000   0.0000
   2.000   0.3790   0.00000  -0.00003  -0.0143   0.0000   0.0000
   3.000   0.4995   0.00000  -0.00003  -0.0157   0.0000   0.0000
   4.000   0.6198   0.00000  -0.00002  -0.0172   0.0000   0.0000
   5.000   0.7400   0.00000  -0.00002  -0.0187   0.0000   0.0000
   6.000   0.8599   0.00000  -0.00002  -0.0202   0.0000   0.0000
   7.000   0.9796   0.00000  -0.00002  -0.0218   0.0000   0.0000
   8.000   1.0989   0.00000  -0.00002  -0.0234   0.0000   0.0000
   9.000   1.2179   0.00000  -0.00002  -0.0250   0.0000   0.0000
  10.000   1.3366   0.00000  -0.00002  -0.0267   0.0000   0.0000
  11.000   1.4549   0.00000  -0.00002  -0.0283   0.0000   0.0000
  12.000   1.5727   0.00000  -0.00003  -0.0301   0.0000   0.0000
  13.000   1.6900   0.00000  -0.00003  -0.0318   0.0000   0.0000
  14.000   1.8068   0.00000  -0.00003  -0.0335   0.0000   0.0000
  15.000   1.9231   0.00000  -0.00003  -0.0353   0.0000   0.0000
